45
tetraphenylborate
 C                  0.46029182    0.29492177    1.25740497
 C                  0.68744026   -0.42170862    2.43269893
 C                  0.69826362    1.66882645    1.22130120
 C                  1.15181300    0.23561591    3.57177933
 H                  0.49899817   -1.50472617    2.46106002
 C                  1.16371793    2.32633158    2.36035746
 H                  0.51945805    2.23376636    0.29501804
 C                  1.39038282    1.61002045    3.53554188
 H                  1.33027924   -0.32906454    4.49837649
 H                  1.35165134    3.40953109    2.33147677
 H                  1.75657851    2.12807071    4.43377402
 C                 -1.59304785   -0.43345417    0.00140690
 C                 -2.28837215   -1.48329458    0.60209871
 C                 -2.29274762    0.61392585   -0.59772871
 C                 -3.68308127   -1.48601050    0.60301548
 H                 -1.73644959   -2.30926600    1.07368591
 C                 -3.68788300    0.61185408   -0.59603323
 H                 -1.74488219    1.44153263   -1.07105684
 C                 -4.38310777   -0.43793851    0.00407930
 H                 -4.23121240   -2.31378632    1.07591712
 H                 -4.23929827    1.43800737   -1.06814144
 H                 -5.48278504   -0.44026756    0.00497755
 C                  0.46256278   -1.88215168   -0.00140847
 C                  1.26349350   -2.33679210   -1.04939869
 C                  0.12897229   -2.74192800    1.04503800
 C                  1.73012645   -3.65112546   -1.05119965
 H                  1.52567647   -1.65893877   -1.87463607
 C                  0.59648005   -4.05640320    1.04388327
 H                 -0.50212913   -2.38371296    1.87118689
 C                  1.39683140   -4.51114326   -0.00406053
 H                  2.36091502   -4.00973335   -1.87751840
 H                  0.33363613   -4.73395239    1.86930098
 H                  1.76492025   -5.54738857   -0.00566776
 C                  0.45799181    0.29654543   -1.25740339
 C                 -0.29930011    0.28003119   -2.42902946
 C                  1.67785991    0.97213235   -1.22496437
 C                  0.16356939    0.93841386   -3.56811059
 H                 -1.26061326   -0.25332588   -2.45450594
 C                  2.14054515    1.63159587   -2.36401666
 H                  2.27476732    0.98539925   -0.30157141
 C                  1.38371404    1.61472926   -3.53553670
 H                 -0.43298313    0.92491270   -4.49182013
 H                  3.10219970    2.16453032   -2.33802374
 H                  1.74843763    2.13381783   -4.43376834
 B                 -0.05305040   -0.43103450    0.00000000
